Circuit: * D:\Documents\rgb\ltspice\sim.asc

Direct Newton iteration for .op point succeeded.
Changing Tseed to 1e-013

Date: Tue Dec 22 11:03:33 2020
Total elapsed time: 10.775 seconds.

tnom = 27
temp = 27
method = modified trap
totiter = 1010553
traniter = 1010536
tranpoints = 501277
accept = 500865
rejected = 411
matrix size = 54
fillins = 27
solver = Normal
Matrix Compiler1: 4.03 KB object code size  0.7/0.3/[0.3]
Matrix Compiler2: 4.50 KB object code size  0.3/0.5/[0.2]

